%chk=cyclopropynylidyne.chk
%mem=6MW
%nproc=1
# hf/3-21g geom=connectivity

Title Card Required

0 2
 C                 -2.17013885    0.14232329    0.20321615
 C                 -2.28577840    1.13527121    1.11983431
 H                 -2.88907567    1.86507191    1.63719717
 C                 -1.05749837    0.64869250    0.81311579

 1 2 1.0 4 1.0
 2 3 1.0 4 1.0
 3
 4

