%chk=s1.chk
%mem=6MW
%nproc=1
# hf/3-21g geom=connectivity

Title Card Required

0 1
 C                 -1.90514499   -0.77278757   -0.00000000
 O                 -0.54724246   -0.32127707   -0.00000000
 O                 -2.82654837   -0.05011419   -0.00000000
 O                  0.29116494   -1.39083494   -0.00000000

 1 2 1.0 3 1.0
 2 4 1.0
 3
 4

