%chk=s1.chk
%mem=6MW
%nproc=1
# hf/3-21g geom=connectivity

Title Card Required

0 1
 C                 -1.09664177   -0.85278475   -0.00000000
 O                 -0.51165650    0.16508962    0.00000000
 O                 -2.34186091   -1.33960944   -0.00000000
 O                 -0.89825294   -2.17498401   -0.00000000

 1 2 2.0 3 1.0 4 1.0
 2
 3 4 1.0
 4

